agvis/cases/NA_out.txt
ANDES 1.8.9
Copyright (C) 2015-2022 Hantao Cui

ANDES comes with ABSOLUTELY NO WARRANTY
Case file: NA.xlsx
Report time: 07/12/2023 03:04:25 PM

Power flow converged in 6 iterations.
Flat-start: No

Statistics:
Buses                            944
Generators                       144
Committed Gens                   144
Loads                           1162
Shunts                           789
Lines                           2775
Transformers                    1614
Areas                             98

EXTENDED SUMMARY:
                              P (pu)            Q (pu)

Generation                    7420.6            1686.9
Load                          7270.9            3190.3

BUS DATA:
                            Bus Name            Vm(pu)          Va(rad.)

1                           CORONADO           0.98881           -1.3845
2                             CHOLLA              1.02           -1.2319
3                           CORONADO            1.0115           -1.2686
4                              CRAIG            1.0109          -0.62785
5                              CRAIG            1.0171          -0.51346
6                           FOURCORN            1.1068           -1.2081
7                           FOURCORN            1.0372           -1.1333
8                           FCNGN4CC            1.0193           -1.0181
9                           FOURCORN            1.0354           -1.1423
10                            HAYDEN                 1          -0.33431
11                            NAVAJO            1.1413           -1.5378
12                          NAVAJO 2            1.0808            -1.445
13                          MOENKOPI            1.1365           -1.5448
14                          PALOVRD2            1.0391           -1.5181
15                          PALOVRDE            1.1237           -1.6371
16                          SAN JUAN            1.0544           -1.1107
17                          SJUAN G4              1.01             -1.06
18                          WESTWING            1.1296           -1.6326
19                           NAVAJO1            1.1404           -1.5292
20                           NAVAJO2            1.1275           -1.5535
21                           NAVAJO3            1.1127           -1.5073
22                           NAVAJO4            1.0987           -1.6637
23                          MOENKOPI            1.1226           -1.5176
24                          MOENKOP2            1.1158             -1.66
25                          MOENKOP3            1.1386           -1.3788
26                          MOENKOP4            1.0345           -1.8941
27                          FOURCOR1            1.0982           -1.1587
28                          FOURCOR2            1.1395           -1.6684
29                          CANAD G1            1.0553           0.29719
30                            CANADA            1.0942           0.23782
31                            CANALB            1.0393           0.72769
32                           CA230TO           0.99842           0.80919
33                             CA230            1.0037            0.9653
34                          CMAIN GM              1.02             1.051
35                          BRIDGER2            1.0613          -0.43216
36                          ADELANTO            1.0634           -1.9071
37                          ADELAN&1            1.1126           -2.0701
38                           CASTAIC            1.0693           -2.1275
39                          CASTAI4G            1.0239           -2.1049
40                           GLENDAL            1.0643           -2.1507
41                            HAYNES            1.0578           -2.1401
42                          HAYNES3G             1.005           -2.0837
43                           INTERMT            1.0636          -0.73542
44                          INTERM1G            1.0607          -0.65597
45                             OLIVE            1.0816           -2.1291
46                           OWENS G            1.0155           -2.1202
47                           RINALDI            1.0821           -2.1319
48                           RINALDI            1.0939           -2.0348
49                             RIVER            1.0564             -2.16
50                             STA B            1.0567           -2.1457
51                            STA B1            1.0564           -2.1176
52                            STA B2            1.0564           -2.1176
53                           STA BLD            1.0558           -2.1564
54                             STA E            1.0642           -2.1392
55                             STA E             1.067           -2.0711
56                             STA F            1.0565           -2.1584
57                             STA G            1.0604           -2.1526
58                             STA J            1.0788           -2.1492
59                          SYLMARLA            1.0965           -2.1394
60                          SYLMAR S            1.0712           -2.1456
61                            VALLEY            1.0743           -2.1408
62                          VICTORVL            1.0594           -1.9657
63                          VICTORVL            1.0601           -1.9052
64                          MONTA G1              1.08           0.73785
65                           MONTANA             1.135           0.61258
66                          BIG EDDY            1.0794           -0.2309
67                          BIG EDDY            1.0764          -0.19047
68                          BIG EDDY            1.1025          -0.20595
69                          DALLES21              1.03         -0.073098
70                            CELILO             1.077          -0.19429
71                          CELILOCA            1.1027          -0.20525
72                           COLSTRP            1.1074          0.050715
73                            COULEE              1.11         -0.075224
74                          GARRISON            1.0948          -0.32007
75                          JOHN DAY            1.0998          -0.22465
76                          JOHN DAY            1.0451        1.3092e-17
77                           HANFORD            1.1346          -0.07641
78                          NORTH G3            1.0647           0.32123
79                             NORTH            1.1123          0.099783
80                             BURNS           0.99637          -0.64593
81                           GRIZZLY            1.0301          -0.53537
82                             MALIN            1.0152           -0.8049
83                          MIDPOINT            1.0923          -0.52501
84                          MIDPOINT            1.0434          -0.49618
85                          SUMMER L            1.0196          -0.63114
86                          GRIZZLY1            1.0436          -0.66901
87                          GRIZZLY2            1.0233          -0.43997
88                            MALIN1            1.0202          -0.49224
89                            MALIN2            1.0211          -0.68448
90                          GRIZZLY3            1.0439          -0.73521
91                          GRIZZLY4            1.0255          -0.53727
92                          GRIZZLY5            1.0297          -0.76411
93                          GRIZZLY6            1.0195          -0.56462
94                          GRIZZLY7             1.045          -0.74623
95                          GRIZZLY8            1.0249          -0.53733
96                          GRIZZLY9            1.0307          -0.77679
97                          GRIZZLYA            1.0182          -0.56622
98                            BURNS1            1.0431           -0.4231
99                           CORTINA            1.0067           -1.1636
100                         COTWDPGE            1.0846           -1.0543
101                           DIABLO            1.0621           -1.7674
102                          DIABLO1            1.0508            -1.706
103                            GATES            1.0234            -1.754
104                            GLENN           0.98827           -1.1303
105                         LOGAN CR            1.0823           -1.1551
106                         LOSBANOS            1.0188           -1.8228
107                           MIDWAY            1.0236           -1.8313
108                           MIDWAY            1.0825           -1.8859
109                         MOSSLAND            1.0158           -1.8277
110                           OLINDA            1.0416           -1.0758
111                         ROUND MT            1.0708          -0.77719
112                         ROUND MT            1.1117          -0.94624
113                         ROUND MT           0.99767          -0.98286
114                         TABLE MT           0.98864           -1.0557
115                           TEVATR             1.012           -1.2095
116                           TEVATR            1.0709           -1.2848
117                          TEVATR2             1.012           -1.1395
118                           TEVATR           0.98628           -1.2829
119                          OLINDA1            1.0136          -0.87143
120                          OLINDA2            1.0742           -1.2655
121                          OLINDA3            1.0245           -1.0727
122                          OLINDA4            1.1351           -1.4688
123                           ROUND1           0.98744           -0.8795
124                           ROUND2            0.9965           -1.1236
125                           ROUND3           0.98744           -0.8795
126                           ROUND4            0.9965           -1.1236
127                           TABLE1           0.96587          -0.83468
128                           TABLE2            1.1095           -1.4692
129                           TABLE3           0.98638          -0.89533
130                           TABLE4            1.0278            -1.358
131                          TEVATR1            1.0492           -1.1743
132                          TEVATR2            1.0832           -2.0057
133                          TEVATR3            1.1852           -1.0845
134                           GATES1            1.0381           -1.9547
135                           DEVERS            1.0741           -1.8641
136                         EAGLROCK            1.0325           -2.1587
137                         ELDORADO              1.02           -1.5809
138                         ELDORADO            1.0662           -1.7034
139                         LITEHIPE             1.009           -2.0331
140                         LITEHIPE            1.0012           -2.1427
141                             LUGO            1.0428             -1.92
142                         MESA CAL           0.99973           -2.1303
143                         MIRALOMA             1.009           -1.9061
144                         MIRALOMA            1.0207           -1.9846
145                         MIRALOMA            1.0187           -1.9967
146                           MOHAVE            1.0738           -1.6352
147                         MOHAV1CC              1.05           -1.4905
148                           PARDEE              1.01           -1.9455
149                           PARDEE            1.0273           -2.1519
150                          SERRANO            1.0318           -1.9889
151                           VALLEY            1.0516           -1.9413
152                          VINCENT             1.028           -1.9007
153                          VINCENT           0.97124           -1.9935
154                         CAMP WIL            1.0647          -0.69419
155                         BENLOMND            1.0756          -0.64826
156                         BENLOMND            1.0891          -0.65767
157                            EMERY            1.0302          -0.62328
158                            EMERY              1.02          -0.53723
159                             MONA            1.0651          -0.69491
160                         NAUGHTON            1.1316          -0.59218
161                           NAUGHT            1.0616          -0.54903
162                         PINTO PS            1.0958           -1.0014
163                            PINTO            1.1134          -0.94432
164                         SPAN FRK            1.0499          -0.68831
165                           SIGURD            1.0545          -0.69267
166                         TERMINAL            1.0648          -0.69395
167                           MALIN3            1.0293          -0.66855
168                           MALIN4            1.0163           -1.1206
169                           MALIN5             1.033          -0.63999
170                           MALIN6            1.0185           -1.1215
171                           MALIN7           0.97824          -0.60239
172                           MALIN8            1.0906           -1.2486
173                          MIDWAY1            1.0031           -1.7525
174                          MIDWAY2            1.0411           -1.9755
175                          MIDWAY3            1.0027           -1.7512
176                          MIDWAY4            1.0415           -1.9759
177                          MIDWAY5            1.0026           -1.7471
178                          MIDWAY6            1.0423           -1.9724
179                           BURNS2            1.0195          -0.53287
180                          ADDBUS1                 1          -0.32007
181                          ADDBUS2            1.1085           -1.2836
2183                        NEXMEXIC            1.0373           -1.1333
2184                       NEXMEXIC1            1.0373           -1.1333
2185                        WYOMING1            1.0919          -0.59294
2186                        WYOMING2            1.0919          -0.59294
2187                        ALBERTA2            1.0421           0.23782
2188                        MONTANA1            1.0413           0.61258
2189                        WYOMING3            1.0919          -0.59294
2190                        ALBERTA3            1.0421           0.23782
2191                       NEXMEXIC2            1.0373           -1.1333
2192                        MONTANA2            1.0413           0.61258
30002                     HILTOPLKS8             1.014           0.80198
30005                       WHITNEY8            1.0255           0.86808
30006                       HILLTOP8            1.0039           0.68589
30007                           RENO           0.99945           0.62881
30009                    GIBN_CREK_8            1.0122           0.80081
30010                    GIBN_CREK_5            1.0159           0.80722
30011                       MCCREE_5           0.98873           0.69709
30012                       JKCREEK1             1.023           0.85697
30013                   GIBN_CREK_G1           0.98521           0.92414
...

LINE DATA:
                           Line Name     Fr. Bus (idx)      To Bus (idx)       P From (pu)       Q From (pu)         P To (pu)         Q To (pu)

Line_1                        Line_1                 2                 7             -5.25           -1.4914            5.2975          -0.70726
Line_2                        Line_2                 2                 7             -5.25           -1.4914            5.2975          -0.70726
Line_3                        Line_3                 4                16            2.4887          -0.36478           -2.3699           0.51415
Line_4                        Line_4                 4                16            2.4887          -0.36478           -2.3699           0.51415
Line_5                        Line_5                 4               159           0.50262           -1.6565          -0.49927          -0.91216
Line_6                        Line_6                 6                27            7.3382           -1.3407           -7.3382           0.96905
Line_7                        Line_7                 6                27            7.3382           -1.3407           -7.3382           0.96905
Line_8                        Line_8                 7                16           -2.4723           -1.4484            2.4799            1.4803
Line_9                        Line_9                 7                16           -2.4723           -1.4484            2.4799            1.4803
Line_10                      Line_10                 7               162           -3.5139           -1.1624            3.5718           0.88188
Line_11                      Line_11                 7              2183        1.3906e-08        -0.0040882        1.3323e-15        7.1054e-15
Line_12                      Line_12                 7              2183        1.3906e-08        -0.0040882        1.3323e-15        7.1054e-15
Line_13                      Line_13                 7              2184        1.3906e-08        -0.0040882        1.3323e-15        7.1054e-15
Line_14                      Line_14                 7              2184        1.3906e-08        -0.0040882        1.3323e-15        7.1054e-15
Line_15                      Line_15                11                19            1.7632          -0.16242           -1.7632           0.14716
Line_16                      Line_16                11                21            3.2619           -2.7938           -3.2619            2.6256
Line_17                      Line_17                11               138             9.975            2.8619           -9.7344            -2.292
Line_18                      Line_18                13                20            -1.761           -1.6281             1.761            1.5999
Line_19                      Line_19                13                23            4.2018           -1.9719           -4.2018            1.8342
Line_20                      Line_20                13                25            11.913          -0.86269           -11.913           -1.1198
Line_21                      Line_21                13                28           -7.1769          -0.29396            7.1769          -0.59434
Line_22                      Line_22                13                28           -7.1769          -0.29396            7.1769          -0.59434
Line_23                      Line_23                15                18          -0.62345           -1.2357           0.62371          0.094711
Line_24                      Line_24                15                18          -0.62345           -1.2357           0.62371          0.094711
Line_25                      Line_25                15               135            9.3375           0.74975           -9.1495           -1.1978
Line_26                      Line_26                15               135            9.3375           0.74975           -9.1495           -1.1978
Line_27                      Line_27                18                22           -3.2409           -2.9933            3.2409            2.8121
Line_28                      Line_28                18                24           -4.1766           -1.9549            4.1766            1.8173
Line_29                      Line_29                19                20            1.7632          -0.14716            -1.761           -1.5999
Line_30                      Line_30                21                22            3.2619           -2.6256           -3.2409           -2.8121
Line_31                      Line_31                23                24            4.2018           -1.8342           -4.1766           -1.8173
Line_32                      Line_32                25                26            11.913            2.4161           -11.647          -0.71516
Line_33                      Line_33                26               138            11.647           0.71516           -11.647            -2.999
Line_34                      Line_34                27                28            7.3382          -0.96905           -7.1769           0.59434
Line_35                      Line_35                27                28            7.3382          -0.96905           -7.1769           0.59434
Line_36                      Line_36                30                31           -2.4955           0.14609            2.5597           -0.5761
Line_37                      Line_37                30                31           -2.4955           0.14609            2.5597           -0.5761
Line_38                      Line_38                30                31           -2.4955           0.14609            2.5597           -0.5761
Line_39                      Line_39                30                79            3.4932           -1.2812           -3.4762          -0.23652
Line_40                      Line_40                30                79            3.4932           -1.2812           -3.4762          -0.23652
Line_41                      Line_41                32                33           -3.8396           0.15752               3.9          -0.35527
Line_42                      Line_42                32                33           -3.8396           0.15752               3.9          -0.35527
Line_43                      Line_43                36                37            10.223           -3.1664           -10.151            3.3181
Line_44                      Line_44                36                55            11.112          -0.53421           -11.022            1.0079
Line_45                      Line_45                36                63           -1.3574            2.1517            1.3574           -2.2774
Line_46                      Line_46                36                63           -1.3574            2.1517            1.3574           -2.2774
Line_47                      Line_47                38                45          0.026577          -0.43672         -0.026274           0.35644
Line_48                      Line_48                38                47           0.10478          -0.41577          -0.10441            0.3253
Line_49                      Line_49                38                58           0.51851          -0.30396          -0.51762           0.20116
Line_50                      Line_50                38                59           0.34783          -0.91319          -0.34609           0.85145
Line_51                      Line_51                40                54           -1.7967           0.13153             1.798          -0.12919
Line_52                      Line_52                40                57           0.44668           0.73115          -0.44645          -0.74122
Line_53                      Line_53                41                49           0.65085         -0.035939          -0.65002         -0.037321
Line_54                      Line_54                41                49           0.60702         -0.039953          -0.60623         -0.040527
Line_55                      Line_55                41                56           0.66654         -0.031536          -0.66575         -0.033207
Line_56                      Line_56                41                57           0.32267          -0.13843          -0.32239          0.034488
Line_57                      Line_57                43               159            -1.865          -0.13999            1.8706          -0.28198
Line_58                      Line_58                43               159            -1.865          -0.13999            1.8706          -0.28198
Line_59                      Line_59                45                47           0.75427          -0.18644          -0.75412           0.17755
Line_60                      Line_60                47                54           0.69356            1.1081          -0.69014           -1.1197
Line_61                      Line_61                47                54           0.69356            1.1081          -0.69014           -1.1197
Line_62                      Line_62                47                58            2.1024          0.069219           -2.0971         -0.055308
Line_63                      Line_63                47                58            2.1024          0.069219           -2.0971         -0.055308
Line_64                      Line_64                47                58            2.0886           0.02795           -2.0826          -0.01427
Line_65                      Line_65                47                58            2.0886           0.02795           -2.0826          -0.01427
Line_66                      Line_66                47                59            1.9732            -4.088           -1.9684            4.1461
Line_67                      Line_67                47                59            1.9732            -4.088           -1.9684            4.1461
Line_68                      Line_68                47                59            1.9732            -4.088           -1.9684            4.1461
Line_69                      Line_69                47                61            1.0064           0.62333           -1.0048          -0.63851
Line_70                      Line_70                47                61            1.0064           0.62333           -1.0048          -0.63851
Line_71                      Line_71                48                63           -7.8318            1.8315            7.8799           -2.6736
Line_72                      Line_72                49                56            -0.484          0.019978           0.48408         -0.028471
Line_73                      Line_73                49                57           -1.4597          -0.59213             1.461           0.59116
Line_74                      Line_74                51                62            -2.088           0.20155            2.1314          -0.29146
Line_75                      Line_75                52                62            -2.088           0.20155            2.1314          -0.29146
Line_76                      Line_76                53                56           0.20943         -0.094247          -0.20939          0.066176
Line_77                      Line_77                53                56           0.20943         -0.094247          -0.20939          0.066176
Line_78                      Line_78                54                57            1.2377           0.19641            -1.236          -0.21067
Line_79                      Line_79                54                57            1.2377           0.19641            -1.236          -0.21067
Line_80                      Line_80                54                61          0.043838           -1.1147         -0.042461             1.101
Line_81                      Line_81                56                57          -0.56955          -0.31068           0.56995            0.2869
Line_82                      Line_82                60               136            0.6313            1.4837          -0.62792           -1.5327
Line_83                      Line_83                60               149           0.80505            3.8947          -0.79597           -3.7804
Line_84                      Line_84                60               149           0.80505            3.8947          -0.79597           -3.7804
Line_85                      Line_85                63               138           -8.8834           0.97956            9.0117           0.22454
Line_86                      Line_86                63               138           -8.8834           0.97956            9.0117           0.22454
Line_87                      Line_87                63               141            4.1975            4.1153           -4.1911           -4.3116
Line_88                      Line_88                65                77            1.3875          0.090939           -1.3781           0.11585
Line_89                      Line_89                65                77            1.3875          0.090939           -1.3781           0.11585
Line_90                      Line_90                65                77            1.3875          0.090939           -1.3781           0.11585
Line_91                      Line_91                65                77            1.3875          0.090939           -1.3781           0.11585
Line_92                      Line_92                65                77            1.3875          0.090939           -1.3781           0.11585
Line_93                      Line_93                65                77            1.3875          0.090939           -1.3781           0.11585
Line_94                      Line_94                65                77            1.3875          0.090939           -1.3781           0.11585
Line_95                      Line_95                65                77            1.3875          0.090939           -1.3781           0.11585
Line_96                      Line_96                67                70            3.3484          -0.62067           -3.3478            0.6294
Line_97                      Line_97                67                70            3.7762          -0.72251           -3.7754           0.73345
Line_98                      Line_98                68                71           -2.8765          -0.49142            2.8766           0.47609
Line_99                      Line_99                68                71           -2.8765          -0.49391            2.8766            0.4736
Line_100                    Line_100                68                75            5.0487           0.25562           -5.0439          -0.56426
Line_101                    Line_101                68                75            5.1039           0.30938           -5.0996           -0.5827
Line_102                    Line_102                72                74            3.8125           -3.7074            -2.387            3.7107
Line_103                    Line_103                72                74            3.8125           -3.7074            -2.387            3.7107
Line_104                    Line_104                72                74            3.8125           -3.7074            -2.387            3.7107
Line_105                    Line_105                72                74            3.8125           -3.7074            -2.387            3.7107
Line_106                    Line_106                73                77       -4.4409e-16            -2.464         0.0016009           0.15631
Line_107                    Line_107                74                75           -1.7299          -0.45949            1.7397          -0.50677
Line_108                    Line_108                74                75           -1.7299          -0.45949            1.7397          -0.50677
Line_109                    Line_109                74                77            -3.208          -0.15944            3.2569            0.3766
Line_110                    Line_110                74                77            -3.208          -0.15944            3.2569            0.3766
Line_111                    Line_111                74                77            -3.208          -0.15944            3.2569            0.3766
Line_112                    Line_112                74                77            -3.208          -0.15944            3.2569            0.3766
Line_113                    Line_113                75                77           -7.9909            -1.686            8.0547           0.77554
Line_114                    Line_114                75                77           -9.2309           -3.2693            9.2523           0.20386
Line_115                    Line_115                75                81            24.894             7.494           -24.536          -0.72834
Line_116                    Line_116                75                81              14.6            3.8333           -14.387          -0.90152
Line_117                    Line_117                75                81            14.592            3.8389           -14.382          -0.90671
Line_118                    Line_118                77                79           -13.578            2.6851            13.638           -1.0643
Line_119                    Line_119                77                79           -13.578            2.6851            13.638           -1.0643
Line_120                    Line_120                77                79           -13.578            2.6851            13.638           -1.0643
Line_121                    Line_121                77                79           -13.578            2.6851            13.638           -1.0643
Line_122                    Line_122                80                98           -2.1484           -1.4016             2.173          -0.85164
Line_123                    Line_123                80                98           -2.1484           -1.4016             2.173          -0.85164
Line_124                    Line_124                80               179            2.1484           0.30955           -2.1484          -0.56268
Line_125                    Line_125                80               179            2.1484           0.30955           -2.1484          -0.56268
Line_126                    Line_126                81                86            19.343           -2.0551           -19.197            3.8917
Line_127                    Line_127                81                90            16.846          -0.82448           -16.669            3.1793
Line_128                    Line_128                81                94            17.783          -0.76553           -17.586             3.506
Line_129                    Line_129                82                88            -22.82            3.7989            23.198            2.1288
Line_130                    Line_130                82                93           -16.268             1.946            16.473           0.82618
Line_131                    Line_131                82                97           -17.151            2.2081            17.368           0.82657
Line_132                    Line_132                82               167            19.728           0.63801           -19.728           -3.3597
Line_133                    Line_133                82               169            19.926           0.44449           -19.926           -3.7746
Line_134                    Line_134                82               171            19.975           -5.7841           -19.975            1.5884
Line_135                    Line_135                83                98             2.173           -1.1187            -2.173           0.85164
Line_136                    Line_136                83                98             2.173           -1.1187            -2.173           0.85164
Line_137                    Line_137                84               155             2.477           -1.1427           -2.4405           0.28712
Line_138                    Line_138                84               155             2.477           -1.1427           -2.4405           0.28712
Line_139                    Line_139                85                87           -18.985            2.0422            19.197           0.55742
Line_140                    Line_140                85                89             23.26           -1.3308           -23.198            2.3447
Line_141                    Line_141                85               179           -2.1375          -0.35566            2.1484          -0.58053
Line_142                    Line_142                85               179           -2.1375          -0.35566            2.1484          -0.58053
Line_143                    Line_143                86                87            19.197           -3.8917           -19.197          -0.55742
Line_144                    Line_144                88                89           -23.198           -2.1288            23.198           -2.3447
Line_145                    Line_145                90                91            16.669           -3.1793           -16.669          -0.15795
Line_146                    Line_146                91                92            16.669           0.15795           -16.473            2.4793
Line_147                    Line_147                92                93            16.473           -2.4793           -16.473          -0.82618
Line_148                    Line_148                94                95            17.586            -3.506           -17.586          -0.21307
Line_149                    Line_149                95                96            17.586           0.21307           -17.368            2.8564
Line_150                    Line_150                96                97            17.368           -2.8564           -17.368          -0.82657
Line_151                    Line_151                99               100          -0.74968           -0.4173           0.76587           0.30628
Line_152                    Line_152                99               116            1.1827           -0.7961           -1.1544           0.85903
Line_153                    Line_153               100               104            1.0288           0.94231           -1.0044          -0.89804
Line_154                    Line_154               100               105            1.0272          -0.15653           -1.0121          0.099424
Line_155                    Line_155               100               112           -1.9483         -0.052585            1.9842           0.18019
Line_156                    Line_156               100               112           -1.9912         -0.062156            2.0266           0.19987
Line_157                    Line_157               100               112           -1.9589         -0.052471             1.995           0.18278
Line_158                    Line_158               100               116           0.97259          -0.15485          -0.94118          0.014457
Line_159                    Line_159               101               103          -0.66569            1.4016           0.66924           -2.7596
Line_160                    Line_160               101               107            3.4078            1.0988            -3.396           -2.4009
Line_161                    Line_161               101               107            3.4078            1.0988            -3.396           -2.4009
Line_162                    Line_162               103               106            3.6226           0.21374           -3.6122          0.035828
Line_163                    Line_163               103               133           -20.576            2.4396             20.96            10.934
Line_164                    Line_164               103               134            13.234          -0.77093           -13.113            2.2908
Line_165                    Line_165               104               116            0.7294          -0.56597           -0.7065           0.45935
Line_166                    Line_166               105               116           0.93202         -0.099424          -0.91544         0.0062579
Line_167                    Line_167               106               107           0.56205          -0.39342          -0.56135           0.40009
Line_168                    Line_168               106               109           0.40011           0.21759              -0.4            -0.215
Line_169                    Line_169               107               132           -14.462            3.2955            14.466             -6.09
Line_170                    Line_170               107               134            -13.11           0.64982            13.113           -2.2908
Line_171                    Line_171               107               173            8.6449           -2.5886           -8.6449            1.8619
Line_172                    Line_172               107               175             8.702           -2.6209            -8.702            1.8768
Line_173                    Line_173               107               177            9.2315            -2.693           -9.2315            1.8678
Line_174                    Line_174               110               119             5.357           -1.2778            -5.357           0.15961
Line_175                    Line_175               110               119             5.357           -1.2778            -5.357           0.15961
Line_176                    Line_176               110               119             5.357           -1.2778            -5.357           0.15961
Line_177                    Line_177               110               119             5.357           -1.2778            -5.357           0.15961
Line_178                    Line_178               110               172           -19.538            3.4112            19.538           -7.0367
Line_179                    Line_179               113               114            20.549          -0.91763           -20.243            2.3884
Line_180                    Line_180               113               123            10.187           -1.5283           -10.185           0.46425
Line_181                    Line_181               113               125            10.187           -1.5283           -10.185           0.46425
Line_182                    Line_182               113               168           -19.333            1.2495            19.333           -3.9644
Line_183                    Line_183               113               170           -19.507            1.5271            19.507           -4.2966
Line_184                    Line_184               114               124           -10.035           0.81116            10.036           -1.5018
Line_185                    Line_185               114               126           -10.035           0.81116            10.036           -1.5018
Line_186                    Line_186               114               127            18.692            -4.067           -18.689           -0.1263
Line_187                    Line_187               114               129            21.628           -2.0182           -21.623           -1.4575
Line_188                    Line_188               118               122           -10.347            6.3759            10.347           -9.4132
Line_189                    Line_189               118               122           -10.347            6.3759            10.347           -9.4132
Line_190                    Line_190               118               128           -18.105            9.1446             18.11           -13.882
Line_191                    Line_191               118               130           -21.156            10.514            21.162           -12.579
Line_192                    Line_192               118               131            14.843            7.4318            -14.84           -9.5704
Line_193                    Line_193               118               133            20.967            15.797            -20.96           -23.576
Line_194                    Line_194               119               120            10.714          -0.31922           -10.544            3.6866
Line_195                    Line_195               119               120            10.714          -0.31922           -10.544            3.6866
Line_196                    Line_196               120               121            10.544           -3.6866           -10.544            1.5239
Line_197                    Line_197               120               121            10.544           -3.6866           -10.544            1.5239
Line_198                    Line_198               121               122            5.2721          -0.76194           -5.1737            2.4517
Line_199                    Line_199               121               122            5.2721          -0.76194           -5.1737            2.4517
Line_200                    Line_200               121               122            5.2721          -0.76194           -5.1737            2.4517
...

OTHER ALGEBRAIC VARIABLES:
                                    

q PV 1                       -1.0244
q PV 2                        1.0517
q PV 3                       -1.8973
q PV 4                        2.1543
q PV 5                        4.6448
q PV 6                        6.0682
q PV 7                       0.14012
q PV 8                        10.575
q PV 9                        10.176
q PV 10                       4.6155
q PV 11                      -1.9598
q PV 12                     -0.11844
q PV 13                       5.3642
q PV 14                     -0.15659
q PV 15                      -1.5355
q PV 16                      -4.5532
q PV 18                       19.916
q PV 19                       4.4146
q PV 20                       10.815
q PV 21                      0.73208
q PV 22                       17.466
q PV 23                      -1.7906
q PV 24                       10.118
q PV 25                       1.4982
q PV 26                       4.0778
q PV 27                       1.7656
q PV 28                      -4.3251
q PV 29                     -0.58919
q PV 30                       7.0561
q PV 31                       33.065
q PV 32                    -0.021033
q PV 33                      0.31527
q PV 34                       16.173
q PV 35                       9.8125
q PV 36                     0.090024
q PV 37                        7.662
q PV 38                       4.4659
q PV 39                       1.3129
q PV 40                        1.651
q PV 41                     -0.12409
q PV 42                      0.66378
q PV 43                       1.8842
q PV 44                      0.69524
q PV 45                       10.551
q PV 46                       2.9284
q PV 47                      -4.6949
q PV 48                      -0.7919
q PV 49                       2.4569
q PV 50                       -1.531
q PV 51                       1.1009
q PV 52                       23.815
q PV 53                       3.3359
q PV 54                       1.5928
q PV 55                      0.50695
q PV 57                     -0.07306
q PV 58                       1.3752
q PV 59                     -0.25238
q PV 60                     -0.46706
q PV 62                       1.6704
q PV 63                       1.2281
q PV 64                      0.50984
q PV 65                       0.9251
q PV 66                       1.0745
q PV 67                      0.48703
q PV 68                       41.843
q PV 69                       2.2408
q PV 70                       1.0692
q PV 71                      0.87863
q PV 72                       0.8765
q PV 73                       1.9998
q PV 74                       0.5489
q PV 75                      0.16081
q PV 76                       1.3879
q PV 77                       2.3259
q PV 78                       1.0284
q PV 79                      0.68315
q PV 80                       2.0888
q PV 81                        4.686
q PV 82                       0.3637
q PV 83                       2.2053
q PV 84                     0.077591
q PV 85                     0.077591
q PV 86                       1.8419
q PV 87                        4.185
q PV 88                      -0.4588
q PV 89                       1.0329
q PV 90                    -0.061014
q PV 91                       0.6111
q PV 92                      0.32265
q PV 93                      -2.7631
q PV 94                       3.4284
q PV 95                       2.3422
q PV 96                       2.5734
q PV 97                     0.013919
q PV 98                       1.2508
q PV 99                       5.8784
q PV 100                      10.535
q PV 101                      3.2588
q PV 102                      1.2759
q PV 103                     0.25599
q PV 104                      2.5182
q PV 105                      2.5021
q PV 106                      8.2422
q PV 107                      18.743
q PV 108                      26.337
q PV 109                      48.827
q PV 110                      27.981
q PV 111                      27.176
q PV 112                      117.08
q PV 113                      94.464
q PV 114                       112.6
q PV 115                      50.955
q PV 116                      31.824
q PV 117                        69.5
q PV 118                      9.5061
q PV 119                      39.282
q PV 120                      21.172
q PV 121                      7.6585
q PV 122                      85.555
q PV 123                      13.767
q PV 124                      25.099
q PV 125                      71.307
q PV 126                       44.09
q PV 127                      16.716
q PV 128                      6.6693
q PV 129                      9.7775
q PV 130                      13.264
q PV 131                      16.495
q PV 132                      5.1727
q PV 133                      2.0221
q PV 134                      24.998
q PV 135                      16.847
q PV 136                      6.1548
q PV 137                      8.4704
q PV 138                       9.417
q PV 139                      11.954
q PV 140                      13.354
q PV 141                      2.9694
q PV 142                      15.289
q PV 143                      75.272
q PV 144                      57.778
q Slack 17                    19.068
q Slack 56                    11.807
q Slack 61                    59.094
p Slack 17                      63.2
p Slack 56                    17.982
p Slack 61                    254.78

